/*--------------------------------*- C++ -*----------------------------------*\
| =========                 |                                                 |
| \\      /  F ield         | OpenFOAM: The Open Source CFD Toolbox           |
|  \\    /   O peration     | Version:  v2406                                 |
|   \\  /    A nd           | Website:  www.openfoam.com                      |
|    \\/     M anipulation  |                                                 |
\*---------------------------------------------------------------------------*/
FoamFile
{
    version 2.0;
    format ascii;
    class dictionary;
    object blockMeshDict;
}

// Define mesh
convertToMeters 1.0;

vertices
(
    (-2.5 -0.5 0)  // 0
    (2.5 -0.5 0)   // 1
    (2.5 0.5 0)    // 2
    (-2.5 0.5 0)   // 3
    (-2.5 -0.5 1)  // 4
    (2.5 -0.5 1)   // 5
    (2.5 0.5 1)    // 6
    (-2.5 0.5 1)   // 7
    (-1.0 -0.5 0)  // 8
    (0.0 -0.5 0)   // 9
    (0.0 -0.3 0)   // 10
    (-1.0 -0.3 0)  // 11
    (-1.0 -0.5 1)  // 12
    (0.0 -0.5 1)   // 13
    (0.0 -0.3 1)   // 14
    (-1.0 -0.3 1)  // 15
    (-1.0 0.5 0)   // 16
    (-1.0 0.5 1)   // 17
    (0.0 0.5 0)    // 18
    (0.0 0.5 1)    // 19
);

blocks
(
    hex (0 8 11 3 4 12 15 7) (25 10 1) simpleGrading (1 1 1)  // Left bottom part of the channel
    hex (8 9 10 11 12 13 14 15) (25 10 1) simpleGrading (1 1 1)  // Middle bottom part of the channel
    hex (9 1 2 10 13 5 6 14) (25 10 1) simpleGrading (1 1 1)  // Right bottom part of the channel
    hex (3 11 16 2 7 15 17 6) (25 10 1) simpleGrading (1 1 1)  // Left top part of the channel
    hex (11 10 18 16 15 14 19 17) (25 10 1) simpleGrading (1 1 1)  // Middle top part of the channel
    hex (10 2 18 16 14 6 19 17) (25 10 1) simpleGrading (1 1 1)  // Right top part of the channel
);

edges
(
);

boundary
(
    inlet
    {
        type patch;
        faces ((0 3 7 4));
    }
    outlet
    {
        type patch;
        faces ((1 2 6 5));
    }
    heat_sink
    {
        type wall;
        faces ((8 9 13 12) (9 10 14 13) (10 11 15 14) (11 8 12 15));
    }
    walls
    {
        type wall;
        faces ((0 1 5 4) (2 3 7 6) (0 8 12 4) (2 10 14 6) (1 9 13 5) (3 11 15 7) (16 17 19 18));
    }
);

mergePatchPairs
(
);