/*--------------------------------*- C++ -*----------------------------------*\
| =========                 |                                                 |
| \\      /  F ield         | OpenFOAM: The Open Source CFD Toolbox           |
|  \\    /   O peration     | Version:  v2406                                 |
|   \\  /    A nd           | Website:  www.openfoam.com                      |
|    \\/     M anipulation  |                                                 |
\*---------------------------------------------------------------------------*/
FoamFile
{
    version     2.0;
    format      ascii;
    class       volVectorField;
    location    "0";
    object      U;
}

// * * * * * * * * * * * * * * * * * * * * * * * * * * * * * * * * * * * * * //

dimensions      [0 1 -1 0 0 0 0];

internalField   uniform (0 0 0);

boundaryField
{
    inlet
    {
        type            fixedValue;
        value           uniform (1.5 0 0);  // 初始值，後續將會被 code 覆蓋
    }

    outlet
    {
        type            zeroGradient;
    }

    heat_sink
    {
        type            fixedValue;
        value           uniform (0 0 0);
    }

    walls
    {
        type            fixedValue;
        value           uniform (0 0 0);
    }

    defaultFaces
    {
        type            empty;
    }
}

// ************************************************************************* //